
 OpenBabel09292121523D

 24 24  0  0  1  0  0  0  0  0999 V2000
   -0.2193   -0.1146    1.5425 C   0  0  2  0  0  0  0  0  0  0  0  0
   -1.2684   -0.2223    0.4287 C   0  0  0  0  0  0  0  0  0  0  0  0
    1.1721   -0.5043    1.0229 C   0  0  0  0  0  0  0  0  0  0  0  0
   -0.6111   -0.9822    2.7373 C   0  0  0  0  0  0  0  0  0  0  0  0
   -1.3950   -1.2722    0.1347 H   0  0  0  0  0  0  0  0  0  0  0  0
   -0.8738    0.5976   -0.7966 C   0  0  0  0  0  0  0  0  0  0  0  0
   -2.2416    0.1237    0.7967 H   0  0  0  0  0  0  0  0  0  0  0  0
    1.1852   -1.5724    0.7679 H   0  0  0  0  0  0  0  0  0  0  0  0
    1.9138   -0.3612    1.8188 H   0  0  0  0  0  0  0  0  0  0  0  0
    1.5723    0.3248   -0.2060 C   0  0  2  0  0  0  0  0  0  0  0  0
    0.5118    0.2143   -1.3087 C   0  0  0  0  0  0  0  0  0  0  0  0
   -0.8871    1.6645   -0.5421 H   0  0  0  0  0  0  0  0  0  0  0  0
   -1.6135    0.4501   -1.5916 H   0  0  0  0  0  0  0  0  0  0  0  0
    0.7783    0.8643   -2.1506 H   0  0  0  0  0  0  0  0  0  0  0  0
    0.4818   -0.8119   -1.6970 H   0  0  0  0  0  0  0  0  0  0  0  0
    2.9401   -0.1113   -0.7284 C   0  0  0  0  0  0  0  0  0  0  0  0
   -0.6658   -2.0406    2.4607 H   0  0  0  0  0  0  0  0  0  0  0  0
   -1.5890   -0.6837    3.1295 H   0  0  0  0  0  0  0  0  0  0  0  0
    0.1195   -0.8810    3.5467 H   0  0  0  0  0  0  0  0  0  0  0  0
    3.2416    0.5010   -1.5848 H   0  0  0  0  0  0  0  0  0  0  0  0
    2.9295   -1.1589   -1.0480 H   0  0  0  0  0  0  0  0  0  0  0  0
    3.7050   -0.0017    0.0475 H   0  0  0  0  0  0  0  0  0  0  0  0
   -0.1813    0.9290    1.8824 H   0  0  0  0  0  0  0  0  0  0  0  0
    1.6478    1.3776    0.0973 H   0  0  0  0  0  0  0  0  0  0  0  0
  1 23  1  1  0  0  0
  1  4  1  0  0  0  0
  2  7  1  0  0  0  0
  2  1  1  0  0  0  0
  3  1  1  0  0  0  0
  3  9  1  0  0  0  0
  4 18  1  0  0  0  0
  4 19  1  0  0  0  0
  5  2  1  0  0  0  0
  6 12  1  0  0  0  0
  6  2  1  0  0  0  0
  8  3  1  0  0  0  0
 10 24  1  1  0  0  0
 10  3  1  0  0  0  0
 11  6  1  0  0  0  0
 11 10  1  0  0  0  0
 13  6  1  0  0  0  0
 14 11  1  0  0  0  0
 15 11  1  0  0  0  0
 16 10  1  0  0  0  0
 16 22  1  0  0  0  0
 17  4  1  0  0  0  0
 20 16  1  0  0  0  0
 21 16  1  0  0  0  0
M  END
$$$$
