
 OpenBabel09072121353D

  5  4  0  0  0  0  0  0  0  0999 V2000
    0.9299   -0.3262   -0.4976 H   0  0  0  0  0  0  0  0  0  0  0  0
    0.0015    0.0204    0.0011 C   0  0  0  0  0  0  0  0  0  0  0  0
   -0.8801   -0.3299   -0.5740 H   0  0  0  0  0  0  0  0  0  0  0  0
   -0.0411   -0.3911    1.0304 H   0  0  0  0  0  0  0  0  0  0  0  0
   -0.0052    1.7970    0.0724 Cl  0  0  0  0  0  0  0  0  0  0  0  0
  1  2  1  0  0  0  0
  2  5  1  0  0  0  0
  2  4  1  0  0  0  0
  3  2  1  0  0  0  0
M  END
$$$$
