
 OpenBabel10162117253D

  5  9  0  0  0  0  0  0  0  0999 V2000
    0.0319   -2.0810   -0.0043 Cl  0  0  0  0  0  0  0  0  0  0  0  0
   -1.0178   -0.0256    1.8059 Cl  0  0  2  0  0  0  0  0  0  0  0  0
    2.0868    0.0117   -0.0003 Cl  0  0  1  0  0  0  0  0  0  0  0  0
   -0.0058    2.0668    0.0166 Cl  0  0  0  0  0  0  0  0  0  0  0  0
   -1.0306   -0.0075   -1.7860 Cl  0  0  1  0  0  0  0  0  0  0  0  0
  2  3  1  6  0  0  0
  2  1  1  0  0  0  0
  3  5  1  6  0  0  0
  3  1  1  0  0  0  0
  4  5  1  0  0  0  0
  4  3  1  0  0  0  0
  4  2  1  0  0  0  0
  5  1  1  0  0  0  0
  5  2  1  1  0  0  0
M  END
$$$$
