
 OpenBabel09292121533D

 24 24  0  0  1  0  0  0  0  0999 V2000
   -0.3697    0.0399    1.5434 C   0  0  0  0  0  0  0  0  0  0  0  0
   -1.4317   -0.0774    0.4554 C   0  0  0  0  0  0  0  0  0  0  0  0
    1.0239   -0.3712    1.0373 C   0  0  1  0  0  0  0  0  0  0  0  0
   -0.6589   -0.5898    2.3935 H   0  0  0  0  0  0  0  0  0  0  0  0
   -0.3414    1.0740    1.9105 H   0  0  0  0  0  0  0  0  0  0  0  0
   -1.5629   -1.1321    0.1841 H   0  0  0  0  0  0  0  0  0  0  0  0
   -1.0506    0.7239   -0.7822 C   0  0  0  0  0  0  0  0  0  0  0  0
   -2.3949    0.2754    0.8410 H   0  0  0  0  0  0  0  0  0  0  0  0
    1.4115    0.4419   -0.2227 C   0  0  2  0  0  0  0  0  0  0  0  0
    0.3243    0.3213   -1.3046 C   0  0  0  0  0  0  0  0  0  0  0  0
   -1.0518    1.7941   -0.5416 H   0  0  0  0  0  0  0  0  0  0  0  0
   -1.8016    0.5718   -1.5656 H   0  0  0  0  0  0  0  0  0  0  0  0
    0.5794    0.9549   -2.1626 H   0  0  0  0  0  0  0  0  0  0  0  0
    0.2818   -0.7112   -1.6750 H   0  0  0  0  0  0  0  0  0  0  0  0
    2.7590    0.0103   -0.8084 C   0  0  0  0  0  0  0  0  0  0  0  0
    2.0407   -0.2163    2.1718 C   0  0  0  0  0  0  0  0  0  0  0  0
    2.1888    0.8374    2.4308 H   0  0  0  0  0  0  0  0  0  0  0  0
    3.0110   -0.6420    1.8993 H   0  0  0  0  0  0  0  0  0  0  0  0
    1.7014   -0.7409    3.0717 H   0  0  0  0  0  0  0  0  0  0  0  0
    3.5813    0.2260   -0.1198 H   0  0  0  0  0  0  0  0  0  0  0  0
    2.9689    0.5500   -1.7383 H   0  0  0  0  0  0  0  0  0  0  0  0
    2.7698   -1.0621   -1.0305 H   0  0  0  0  0  0  0  0  0  0  0  0
    1.4942    1.5015    0.0563 H   0  0  0  0  0  0  0  0  0  0  0  0
    0.9850   -1.4359    0.7684 H   0  0  0  0  0  0  0  0  0  0  0  0
  1  5  1  0  0  0  0
  1  4  1  0  0  0  0
  2  8  1  0  0  0  0
  2  1  1  0  0  0  0
  3  9  1  6  0  0  0
  3  1  1  0  0  0  0
  3 16  1  0  0  0  0
  6  2  1  0  0  0  0
  7 11  1  0  0  0  0
  7  2  1  0  0  0  0
  9 23  1  1  0  0  0
 10  7  1  0  0  0  0
 10  9  1  0  0  0  0
 12  7  1  0  0  0  0
 13 10  1  0  0  0  0
 14 10  1  0  0  0  0
 15  9  1  0  0  0  0
 15 20  1  0  0  0  0
 16 17  1  0  0  0  0
 16 19  1  0  0  0  0
 18 16  1  0  0  0  0
 21 15  1  0  0  0  0
 22 15  1  0  0  0  0
 24  3  1  0  0  0  0
M  END
$$$$
