
 OpenBabel10162115133D

  4  6  0  0  0  0  0  0  0  0999 V2000
    1.7432   -0.6973   -0.9789 P   0  0  2  0  0  0  0  0  0  0  0  0
   -1.7379   -0.6729   -1.0299 P   0  0  1  0  0  0  0  0  0  0  0  0
   -0.0415   -0.6836    2.0104 P   0  0  2  0  0  0  0  0  0  0  0  0
    0.0079    2.1580   -0.0007 P   0  0  1  0  0  0  0  0  0  0  0  0
  1  3  1  1  0  0  0
  1  2  1  0  0  0  0
  2  3  1  1  0  0  0
  3  4  1  6  0  0  0
  4  2  1  6  0  0  0
  4  1  1  0  0  0  0
M  END
$$$$
