
 OpenBabel10062122403D

 28 29  0  0  0  0  0  0  0  0999 V2000
    0.2568    1.9928   -2.6751 C   0  0  0  0  0  0  0  0  0  0  0  0
    1.4291    1.0212   -2.9249 C   0  0  0  0  0  0  0  0  0  0  0  0
    1.3289   -0.3628   -2.6912 C   0  0  0  0  0  0  0  0  0  0  0  0
    0.4031   -0.8166   -2.3494 H   0  0  0  0  0  0  0  0  0  0  0  0
    2.4228   -1.2111   -2.8953 C   0  0  0  0  0  0  0  0  0  0  0  0
    2.3161   -2.2782   -2.7132 H   0  0  0  0  0  0  0  0  0  0  0  0
    3.6374   -0.6896   -3.3220 C   0  0  0  0  0  0  0  0  0  0  0  0
    4.9871   -1.7305   -3.5496 Cl  0  0  0  0  0  0  0  0  0  0  0  0
    3.7637    0.6742   -3.5659 C   0  0  0  0  0  0  0  0  0  0  0  0
    4.7126    1.0871   -3.8968 H   0  0  0  0  0  0  0  0  0  0  0  0
    2.6641    1.5189   -3.3810 C   0  0  0  0  0  0  0  0  0  0  0  0
    2.7977    2.5789   -3.5932 H   0  0  0  0  0  0  0  0  0  0  0  0
   -1.1138    1.3819   -3.0392 C   0  0  0  0  0  0  0  0  0  0  0  0
   -1.8725    0.6124   -2.1390 C   0  0  0  0  0  0  0  0  0  0  0  0
   -1.5185    0.3910   -1.1363 H   0  0  0  0  0  0  0  0  0  0  0  0
   -3.1152    0.0888   -2.5088 C   0  0  0  0  0  0  0  0  0  0  0  0
   -3.6836   -0.5024   -1.7947 H   0  0  0  0  0  0  0  0  0  0  0  0
   -3.6177    0.3260   -3.7831 C   0  0  0  0  0  0  0  0  0  0  0  0
   -5.1503   -0.3124   -4.2311 Cl  0  0  0  0  0  0  0  0  0  0  0  0
   -2.8824    1.0748   -4.6964 C   0  0  0  0  0  0  0  0  0  0  0  0
   -3.2723    1.2598   -5.6939 H   0  0  0  0  0  0  0  0  0  0  0  0
   -1.6363    1.5931   -4.3297 C   0  0  0  0  0  0  0  0  0  0  0  0
   -1.0811    2.1721   -5.0664 H   0  0  0  0  0  0  0  0  0  0  0  0
    0.3869    2.7837   -3.4327 H   0  0  0  0  0  0  0  0  0  0  0  0
    0.3278    2.7624   -1.2985 C   0  0  0  0  0  0  0  0  0  0  0  0
    0.5346    1.6850    0.1271 Cl  0  0  0  0  0  0  0  0  0  0  0  0
   -1.1422    3.7839   -1.0231 Cl  0  0  0  0  0  0  0  0  0  0  0  0
    1.7178    3.9324   -1.2702 Cl  0  0  0  0  0  0  0  0  0  0  0  0
  1  2  1  0  0  0  0
  1 13  1  0  0  0  0
  1 24  1  0  0  0  0
  1 25  1  0  0  0  0
  2  3  2  0  0  0  0
  2 11  1  0  0  0  0
  3  4  1  0  0  0  0
  3  5  1  0  0  0  0
  5  6  1  0  0  0  0
  5  7  2  0  0  0  0
  7  8  1  0  0  0  0
  7  9  1  0  0  0  0
  9 10  1  0  0  0  0
  9 11  2  0  0  0  0
 11 12  1  0  0  0  0
 13 14  2  0  0  0  0
 13 22  1  0  0  0  0
 14 15  1  0  0  0  0
 14 16  1  0  0  0  0
 16 17  1  0  0  0  0
 16 18  2  0  0  0  0
 18 19  1  0  0  0  0
 18 20  1  0  0  0  0
 20 21  1  0  0  0  0
 20 22  2  0  0  0  0
 22 23  1  0  0  0  0
 25 26  1  0  0  0  0
 25 27  1  0  0  0  0
 25 28  1  0  0  0  0
M  END
$$$$
