
 OpenBabel09072121343D

  5  4  0  0  0  0  0  0  0  0999 V2000
    0.9302   -0.3969   -0.5005 H   0  0  0  0  0  0  0  0  0  0  0  0
    0.0018   -0.0503   -0.0017 C   0  0  0  0  0  0  0  0  0  0  0  0
   -0.8799   -0.4006   -0.5769 H   0  0  0  0  0  0  0  0  0  0  0  0
   -0.0408   -0.4619    1.0276 H   0  0  0  0  0  0  0  0  0  0  0  0
   -0.0062    2.0800    0.0838 I   0  0  0  0  0  0  0  0  0  0  0  0
  1  2  1  0  0  0  0
  2  5  1  0  0  0  0
  2  4  1  0  0  0  0
  3  2  1  0  0  0  0
M  END
$$$$
