
 OpenBabel09292121513D

 24 24  0  0  1  0  0  0  0  0999 V2000
   -0.1918   -0.1118    1.6225 C   0  0  1  0  0  0  0  0  0  0  0  0
   -1.2108   -0.2291    0.4824 C   0  0  0  0  0  0  0  0  0  0  0  0
    1.2421   -0.3675    1.1287 C   0  0  0  0  0  0  0  0  0  0  0  0
   -0.4231   -0.9016    2.3507 H   0  0  0  0  0  0  0  0  0  0  0  0
   -0.3390    1.2073    2.3825 C   0  0  0  0  0  0  0  0  0  0  0  0
   -1.2933   -1.2851    0.1934 H   0  0  0  0  0  0  0  0  0  0  0  0
   -0.8259    0.5821   -0.7512 C   0  0  0  0  0  0  0  0  0  0  0  0
   -2.2061    0.0746    0.8280 H   0  0  0  0  0  0  0  0  0  0  0  0
    1.3290   -1.4482    0.9465 H   0  0  0  0  0  0  0  0  0  0  0  0
    1.9642   -0.1456    1.9241 H   0  0  0  0  0  0  0  0  0  0  0  0
    1.6493    0.3394   -0.1749 C   0  0  1  0  0  0  0  0  0  0  0  0
    0.5655    0.2062   -1.2517 C   0  0  0  0  0  0  0  0  0  0  0  0
   -0.8728    1.6539   -0.5301 H   0  0  0  0  0  0  0  0  0  0  0  0
   -1.5573    0.3971   -1.5467 H   0  0  0  0  0  0  0  0  0  0  0  0
    0.8202    0.8162   -2.1265 H   0  0  0  0  0  0  0  0  0  0  0  0
    0.5417   -0.8354   -1.5981 H   0  0  0  0  0  0  0  0  0  0  0  0
    2.5463   -0.1739   -0.5484 H   0  0  0  0  0  0  0  0  0  0  0  0
    2.0644    1.7962    0.0361 C   0  0  0  0  0  0  0  0  0  0  0  0
    1.2206    2.4492    0.2645 H   0  0  0  0  0  0  0  0  0  0  0  0
    2.5356    2.1884   -0.8722 H   0  0  0  0  0  0  0  0  0  0  0  0
    2.7944    1.8813    0.8477 H   0  0  0  0  0  0  0  0  0  0  0  0
   -1.3124    1.2455    2.8845 H   0  0  0  0  0  0  0  0  0  0  0  0
   -0.2820    2.0810    1.7314 H   0  0  0  0  0  0  0  0  0  0  0  0
    0.4322    1.3025    3.1539 H   0  0  0  0  0  0  0  0  0  0  0  0
  1  4  1  1  0  0  0
  1  5  1  0  0  0  0
  2  8  1  0  0  0  0
  2  1  1  0  0  0  0
  3  1  1  0  0  0  0
  3 10  1  0  0  0  0
  5 22  1  0  0  0  0
  5 24  1  0  0  0  0
  6  2  1  0  0  0  0
  7 13  1  0  0  0  0
  7  2  1  0  0  0  0
  9  3  1  0  0  0  0
 11 17  1  6  0  0  0
 11 18  1  0  0  0  0
 11  3  1  0  0  0  0
 12  7  1  0  0  0  0
 12 11  1  0  0  0  0
 14  7  1  0  0  0  0
 15 12  1  0  0  0  0
 16 12  1  0  0  0  0
 18 19  1  0  0  0  0
 18 21  1  0  0  0  0
 20 18  1  0  0  0  0
 23  5  1  0  0  0  0
M  END
$$$$
